Circuit: * Z:\home\zmann\git\SmartHome\Draft1.asc

Direct Newton iteration for .op point succeeded.

Date: Tue Nov 12 22:32:40 2019
Total elapsed time: 0.040 seconds.

tnom = 27
temp = 27
method = modified trap
totiter = 2098
traniter = 2088
tranpoints = 1045
accept = 1045
rejected = 0
matrix size = 6
fillins = 0
solver = Normal
Matrix Compiler1: 414 bytes object code size  0.6/0.4/[0.5]
Matrix Compiler2: off  [0.4]/0.5/0.4

